SOLUTION_SPECIES
    H2O + 0.01e- = H2O-0.01
    log_k -9.0

KNOBS
    -iterations 500
    -convergence_tolerance 1e-8
    -step_size 10
    -pe_step_size 10
    -diagonal_scale true
    -debug_model true